*Heading
** Job name: Job-1 Model name: Model-1
** Generated by: Abaqus/CAE 2018
*Preprint, echo=NO, model=NO, history=NO, contact=NO
**
** PARTS
**
*Part, name=Part-1
*Node
      1, 0.0199999996,          0.5,           3.
      2, 0.0199999996,  0.449999988,           3.
      3, 0.0199999996,  0.400000006,           3.
      4, 0.0199999996,  0.349999994,           3.
      5, 0.0199999996,  0.300000012,           3.
      6, 0.0199999996,         0.25,           3.
      7, 0.0199999996,  0.200000003,           3.
      8, 0.0199999996,  0.150000006,           3.
      9, 0.0199999996,  0.100000001,           3.
     10, 0.0199999996, 0.0500000007,           3.
     11, 0.0199999996,           0.,           3.
     12, 0.0199999996, -0.0500000007,           3.
     13, 0.0199999996, -0.100000001,           3.
     14, 0.0199999996, -0.150000006,           3.
     15, 0.0199999996, -0.200000003,           3.
     16, 0.0199999996,        -0.25,           3.
     17, 0.0199999996, -0.300000012,           3.
     18, 0.0199999996, -0.349999994,           3.
     19, 0.0199999996, -0.400000006,           3.
     20, 0.0199999996, -0.449999988,           3.
** ... 2542 like lines cut
*Element, type=C3D8R
   1, 1282, 1283, 1304, 1303,    1,    2,   23,   22
   2, 1283, 1284, 1305, 1304,    2,    3,   24,   23
   3, 1284, 1285, 1306, 1305,    3,    4,   25,   24
   4, 1285, 1286, 1307, 1306,    4,    5,   26,   25
   5, 1286, 1287, 1308, 1307,    5,    6,   27,   26
   6, 1287, 1288, 1309, 1308,    6,    7,   28,   27
   7, 1288, 1289, 1310, 1309,    7,    8,   29,   28
   8, 1289, 1290, 1311, 1310,    8,    9,   30,   29
   9, 1290, 1291, 1312, 1311,    9,   10,   31,   30
  10, 1291, 1292, 1313, 1312,   10,   11,   32,   31
  11, 1292, 1293, 1314, 1313,   11,   12,   33,   32
  12, 1293, 1294, 1315, 1314,   12,   13,   34,   33
  13, 1294, 1295, 1316, 1315,   13,   14,   35,   34
  14, 1295, 1296, 1317, 1316,   14,   15,   36,   35
  15, 1296, 1297, 1318, 1317,   15,   16,   37,   36
  16, 1297, 1298, 1319, 1318,   16,   17,   38,   37
  17, 1298, 1299, 1320, 1319,   17,   18,   39,   38
  18, 1299, 1300, 1321, 1320,   18,   19,   40,   39
  19, 1300, 1301, 1322, 1321,   19,   20,   41,   40
  20, 1301, 1302, 1323, 1322,   20,   21,   42,   41
** ... 1180 like lines cut
*Nset, nset=whole_plate, generate
    1,  2562,     1
*Elset, elset=whole_plate, generate
    1,  1200,     1
*Orientation, name=Ori-1
1., 0., 0., 0., 1., 0.
1, 0.
** Section: plate_section
*Solid Section, elset=whole_plate, orientation=Ori-1, material=variable_lambda
,
*End Part
**  
**
** ASSEMBLY
**
*Assembly, name=Assembly
**  
*Instance, name=Part-1-1, part=Part-1
*End Instance
**  
*Elset, elset=_loading_surface_S5, internal, instance=Part-1-1, generate
 1181,  1200,     1
*Surface, type=ELEMENT, name=loading_surface
_loading_surface_S5, S5
*Elset, elset=_loading_surface_lower_S5, internal, instance=Part-1-1, generate
 1191,  1200,     1
*Surface, type=ELEMENT, name=loading_surface_lower
_loading_surface_lower_S5, S5
*Elset, elset=_loading_surface_upper_S5, internal, instance=Part-1-1, generate
 1181,  1190,     1
*Surface, type=ELEMENT, name=loading_surface_upper
_loading_surface_upper_S5, S5
*End Assembly
** 
** MATERIALS
** 
*Material, name=variable_lambda
*Elastic, type=ENGINEERING CONSTANTS
 2e+07,  2e+07,  2e+07,    0.3,    0.3,    0.3,  1e+07, 10000.
100000.,
** ----------------------------------------------------------------
** 
** STEP: loading
** 
*Step, name=loading, nlgeom=NO
*Static
1., 1., 1e-05, 1.
** 
** LOADS
** 
** Name: Load-1   Type: Pressure Using Field: AnalyticalField-2
*Dload, op=NEW
Part-1-1.1181, P5, -0.9
Part-1-1.1182, P5, -0.7
Part-1-1.1183, P5, -0.5
Part-1-1.1184, P5, -0.3
Part-1-1.1185, P5, -0.1
Part-1-1.1186, P5, 0.1
Part-1-1.1187, P5, 0.3
Part-1-1.1188, P5, 0.5
Part-1-1.1189, P5, 0.7
Part-1-1.1190, P5, 0.9
** Name: Load-2   Type: Pressure Using Field: AnalyticalField-3
*Dload, op=NEW
Part-1-1.1191, P5, 0.9
Part-1-1.1192, P5, 0.7
Part-1-1.1193, P5, 0.5
Part-1-1.1194, P5, 0.3
Part-1-1.1195, P5, 0.1
Part-1-1.1196, P5, -0.1
Part-1-1.1197, P5, -0.3
Part-1-1.1198, P5, -0.5
Part-1-1.1199, P5, -0.7
Part-1-1.1200, P5, -0.9
** 
** OUTPUT REQUESTS
** 
*Restart, write, frequency=0
** 
** FIELD OUTPUT: F-Output-1
** 
*Output, field
*Node Output
CF, COORD, RF, U
*Element Output, directions=YES
EEQUT, LE, MVF, PE, PEEQ, PEMAG, S, SEQUT, TE, TEEQ, TEVOL
*Contact Output
CDISP, CSTRESS
** 
** HISTORY OUTPUT: H-Output-1
** 
*Output, history, variable=PRESELECT
*End Step
