*Heading
** Job name: Job-1 Model name: Model-1
** Generated by: Abaqus/CAE 2018
*Preprint, echo=NO, model=NO, history=NO, contact=NO
**
** PARTS
**
*Part, name=Part-1
*Node
      1,          0.5,          0.5,           0.
      2,         -0.5,          0.5,           0.
      3,          0.5,  0.439999998,           0.
      4, 0.0399999991,  0.439999998,           0.
      5, 0.0399999991, -0.439999998,           0.
      6,          0.5, -0.439999998,           0.
      7,          0.5,         -0.5,           0.
      8,         -0.5,         -0.5,           0.
      9,         -0.5, -0.439999998,           0.
     10, -0.0399999991, -0.439999998,           0.
     11, -0.0399999991,  0.439999998,           0.
     12,         -0.5,  0.439999998,           0.
     13,  0.449999988,          0.5,           0.
     14,  0.400000006,          0.5,           0.
     15,  0.349999994,          0.5,           0.
     16,  0.300000012,          0.5,           0.
     17,         0.25,          0.5,           0.
     18,  0.200000003,          0.5,           0.
     19,  0.150000006,          0.5,           0.
     20,  0.100000001,          0.5,           0.
** ... 13615 like lines cut
*Element, type=C3D8R
   1,   109,    31,     2,    12,   244,   166,   137,   147
   2,   114,    26,    27,   113,   249,   161,   162,   248
   3,    35,    36,    16,    17,   170,   171,   151,   152
   4,    92,   118,   135,    11,   227,   253,   270,   146
   5,    55,    56,   118,   131,   190,   191,   253,   266
   6,    46,    47,   119,   123,   181,   182,   254,   258
   7,    73,    74,   117,    10,   208,   209,   252,   145
   8,    87,    88,    68,    69,   222,   223,   203,   204
   9,    77,    63,    64,    76,   212,   198,   199,   211
  10,    76,    64,     5,    75,   211,   199,   140,   210
  11,    39,     3,     1,    13,   174,   138,   136,   148
  12,    38,    39,    13,    14,   173,   174,   148,   149
  13,    37,    38,    14,    15,   172,   173,   149,   150
  14,    36,    37,    15,    16,   171,   172,   150,   151
  15,    34,    35,    17,    18,   169,   170,   152,   153
  16,    33,    34,    18,    19,   168,   169,   153,   154
  17,    32,    33,    19,    20,   167,   168,   154,   155
  18,     4,    32,    20,    21,   139,   167,   155,   156
  19,    21,    22,   135,     4,   156,   157,   270,   139
  20,    23,    11,   135,    22,   158,   146,   270,   157
** ... 7580 like lines cut
*Nset, nset=Set-1, generate
     1,  13635,      1
*Elset, elset=Set-1, generate
    1,  7600,     1
** Section: I-section
*Solid Section, elset=Set-1, material=Material-1
,
*End Part
**  
**
** ASSEMBLY
**
*Assembly, name=Assembly
**  
*Instance, name=Part-1-1, part=Part-1
*End Instance
**  
*Nset, nset="loading_note=", instance=Part-1-1
 13624,
*Nset, nset=wall-0, instance=Part-1-1
 1,
*Nset, nset=wall-1, instance=Part-1-1
 2,
*Nset, nset=wall-2, instance=Part-1-1
 3,
*Nset, nset=wall-3, instance=Part-1-1
 4,
*Nset, nset=wall-4, instance=Part-1-1
 5,
*Nset, nset=wall-5, instance=Part-1-1
 6,
*Nset, nset=wall-6, instance=Part-1-1
 7,
*Nset, nset=wall-7, instance=Part-1-1
 8,
*Nset, nset=wall-8, instance=Part-1-1
 9,
*Nset, nset=wall-9, instance=Part-1-1
 10,
*Nset, nset=wall-10, instance=Part-1-1
 11,
*Nset, nset=wall-11, instance=Part-1-1
 12,
*Nset, nset=wall-12, instance=Part-1-1
 13,
*Nset, nset=wall-13, instance=Part-1-1
 14,
*Nset, nset=wall-14, instance=Part-1-1
 15,
*Nset, nset=wall-15, instance=Part-1-1
 16,
*Nset, nset=wall-16, instance=Part-1-1
 17,
*Nset, nset=wall-17, instance=Part-1-1
 18,
*Nset, nset=wall-18, instance=Part-1-1
 19,
*Nset, nset=wall-19, instance=Part-1-1
** ... 231 like lines cut
*Nset, nset=wall_nodes_all, instance=Part-1-1, generate
   1,  135,    1
** Constraint: moment_x_u3
*Equation
134
wall-1, 3, 1.
wall-0, 3, 1.
wall-2, 3, 0.94
wall-3, 3, 0.94
wall-4, 3, 0.06
wall-5, 3, 0.06
wall-6, 3, 0.
wall-7, 3, 0.
wall-8, 3, 0.06
wall-9, 3, 0.06
wall-10, 3, 0.94
wall-11, 3, 0.94
wall-12, 3, 1.
wall-13, 3, 1.
wall-14, 3, 1.
wall-15, 3, 1.
wall-16, 3, 1.
wall-17, 3, 1.
wall-18, 3, 1.
wall-19, 3, 1.
** ... 114 like lines cut
** Constraint: moment_y_u3
*Equation
133
wall-2, 3, -0.49
wall-0, 3, -0.55
wall-3, 3, -0.95
wall-4, 3, -0.07
wall-5, 3, 0.39
wall-6, 3, 0.45
wall-7, 3, -0.55
wall-8, 3, -0.61
wall-9, 3, -0.15
wall-10, 3, -1.03
wall-11, 3, -1.49
wall-12, 3, -0.6
wall-13, 3, -0.65
wall-14, 3, -0.7
wall-15, 3, -0.75
wall-16, 3, -0.8
wall-17, 3, -0.85
wall-18, 3, -0.9
wall-19, 3, -0.95
wall-20, 3, -1.
** ... 113 like lines cut
** Constraint: sum_of_u3
*Equation
135
wall-74, 3, 1.
wall-1, 3, 1.
wall-2, 3, 1.
wall-3, 3, 1.
wall-4, 3, 1.
wall-5, 3, 1.
wall-6, 3, 1.
wall-7, 3, 1.
wall-8, 3, 1.
wall-9, 3, 1.
wall-10, 3, 1.
wall-11, 3, 1.
wall-12, 3, 1.
wall-13, 3, 1.
wall-14, 3, 1.
wall-15, 3, 1.
wall-16, 3, 1.
wall-17, 3, 1.
wall-18, 3, 1.
wall-19, 3, 1.
** ... 115 like lines cut
*End Assembly
** 
** MATERIALS
** 
*Material, name=Material-1
*Elastic
 2.1e+11, 0.3
** 
** BOUNDARY CONDITIONS
** 
** Name: BC-1 Type: Displacement/Rotation
*Boundary
wall_nodes_all, 1, 1
wall_nodes_all, 2, 2
wall_nodes_all, 4, 4
wall_nodes_all, 5, 5
wall_nodes_all, 6, 6
** ----------------------------------------------------------------
** 
** STEP: loading
** 
*Step, name=loading, nlgeom=NO
*Static
1., 1., 1e-05, 1.
** 
** LOADS
** 
** Name: Load-1   Type: Concentrated force
*Cload
"loading_note=", 2, -10.
** 
** OUTPUT REQUESTS
** 
*Restart, write, frequency=0
** 
** FIELD OUTPUT: F-Output-1
** 
*Output, field, variable=PRESELECT
** 
** HISTORY OUTPUT: H-Output-1
** 
*Output, history, variable=PRESELECT
*End Step
